# generated using pymatgen
data_YbIn2Rh
_symmetry_space_group_name_H-M   'P 1'
_cell_length_a   5.51372038
_cell_length_b   5.51372038
_cell_length_c   8.35569000
_cell_angle_alpha   90.00000000
_cell_angle_beta   90.00000000
_cell_angle_gamma   135.57731525
_symmetry_Int_Tables_number   1
_chemical_formula_structural   YbIn2Rh
_chemical_formula_sum   'Yb2 In4 Rh2'
_cell_volume   177.80191396
_cell_formula_units_Z   2
loop_
 _symmetry_equiv_pos_site_id
 _symmetry_equiv_pos_as_xyz
  1  'x, y, z'
loop_
 _atom_site_type_symbol
 _atom_site_label
 _atom_site_symmetry_multiplicity
 _atom_site_fract_x
 _atom_site_fract_y
 _atom_site_fract_z
 _atom_site_occupancy
  Yb  Yb0  1  0.06606200  0.93393800  0.25000000  1
  Yb  Yb1  1  0.93393800  0.06606200  0.75000000  1
  In  In2  1  0.64584500  0.35415500  0.54957500  1
  In  In3  1  0.35415500  0.64584500  0.45042500  1
  In  In4  1  0.64584500  0.35415500  0.95042500  1
  In  In5  1  0.35415500  0.64584500  0.04957500  1
  Rh  Rh6  1  0.21951600  0.78048400  0.75000000  1
  Rh  Rh7  1  0.78048400  0.21951600  0.25000000  1
