# generated using pymatgen
data_FeIr3
_symmetry_space_group_name_H-M   'P 1'
_cell_length_a   5.40657226
_cell_length_b   5.40657226
_cell_length_c   4.30886100
_cell_angle_alpha   90.00000000
_cell_angle_beta   90.00000000
_cell_angle_gamma   120.00000319
_symmetry_Int_Tables_number   1
_chemical_formula_structural   FeIr3
_chemical_formula_sum   'Fe2 Ir6'
_cell_volume   109.07798981
_cell_formula_units_Z   2
loop_
 _symmetry_equiv_pos_site_id
 _symmetry_equiv_pos_as_xyz
  1  'x, y, z'
loop_
 _atom_site_type_symbol
 _atom_site_label
 _atom_site_symmetry_multiplicity
 _atom_site_fract_x
 _atom_site_fract_y
 _atom_site_fract_z
 _atom_site_occupancy
  Fe  Fe0  1  0.33333300  0.66666700  0.75000000  1
  Fe  Fe1  1  0.66666700  0.33333300  0.25000000  1
  Ir  Ir2  1  0.16992500  0.33985000  0.25000000  1
  Ir  Ir3  1  0.66015000  0.83007500  0.25000000  1
  Ir  Ir4  1  0.16992500  0.83007500  0.25000000  1
  Ir  Ir5  1  0.83007500  0.66015000  0.75000000  1
  Ir  Ir6  1  0.33985000  0.16992500  0.75000000  1
  Ir  Ir7  1  0.83007500  0.16992500  0.75000000  1
