# generated using pymatgen
data_Nb6SnGe
_symmetry_space_group_name_H-M   'P 1'
_cell_length_a   5.25768300
_cell_length_b   5.25768300
_cell_length_c   5.25768300
_cell_angle_alpha   90.00000000
_cell_angle_beta   90.00000000
_cell_angle_gamma   90.00000000
_symmetry_Int_Tables_number   1
_chemical_formula_structural   Nb6SnGe
_chemical_formula_sum   'Nb6 Sn1 Ge1'
_cell_volume   145.33934321
_cell_formula_units_Z   1
loop_
 _symmetry_equiv_pos_site_id
 _symmetry_equiv_pos_as_xyz
  1  'x, y, z'
loop_
 _atom_site_type_symbol
 _atom_site_label
 _atom_site_symmetry_multiplicity
 _atom_site_fract_x
 _atom_site_fract_y
 _atom_site_fract_z
 _atom_site_occupancy
  Nb  Nb0  1  0.00000000  0.50000000  0.74218900  1
  Nb  Nb1  1  0.50000000  0.25781100  0.00000000  1
  Nb  Nb2  1  0.74218900  0.00000000  0.50000000  1
  Nb  Nb3  1  0.00000000  0.50000000  0.25781100  1
  Nb  Nb4  1  0.50000000  0.74218900  0.00000000  1
  Nb  Nb5  1  0.25781100  0.00000000  0.50000000  1
  Sn  Sn6  1  0.00000000  0.00000000  0.00000000  1
  Ge  Ge7  1  0.50000000  0.50000000  0.50000000  1
