# generated using pymatgen
data_MoWSe3S
_symmetry_space_group_name_H-M   'P 1'
_cell_length_a   3.28858152
_cell_length_b   3.28858152
_cell_length_c   37.34337600
_cell_angle_alpha   90.00000000
_cell_angle_beta   90.00000000
_cell_angle_gamma   119.99999034
_symmetry_Int_Tables_number   1
_chemical_formula_structural   MoWSe3S
_chemical_formula_sum   'Mo2 W2 Se6 S2'
_cell_volume   349.75302174
_cell_formula_units_Z   2
loop_
 _symmetry_equiv_pos_site_id
 _symmetry_equiv_pos_as_xyz
  1  'x, y, z'
loop_
 _atom_site_type_symbol
 _atom_site_label
 _atom_site_symmetry_multiplicity
 _atom_site_fract_x
 _atom_site_fract_y
 _atom_site_fract_z
 _atom_site_occupancy
  Mo  Mo0  1  0.00000000  0.00000000  0.09392900  1
  Mo  Mo1  1  0.33333300  0.66666700  0.28179700  1
  W  W2  1  0.00000000  0.00000000  0.46964700  1
  W  W3  1  0.33333300  0.66666700  0.65755200  1
  Se  Se4  1  0.00000000  0.00000000  0.70295300  1
  Se  Se5  1  0.33333300  0.66666700  0.04878900  1
  Se  Se6  1  0.33333300  0.66666700  0.42425200  1
  Se  Se7  1  0.33333300  0.66666700  0.13906200  1
  Se  Se8  1  0.33333300  0.66666700  0.51505100  1
  Se  Se9  1  0.00000000  0.00000000  0.61211800  1
  S  S10  1  0.00000000  0.00000000  0.32287000  1
  S  S11  1  0.00000000  0.00000000  0.24072800  1
