# generated using pymatgen
data_Te2MoWS2
_symmetry_space_group_name_H-M   'P 1'
_cell_length_a   3.35938410
_cell_length_b   3.35938410
_cell_length_c   38.34110500
_cell_angle_alpha   90.00000000
_cell_angle_beta   90.00000000
_cell_angle_gamma   120.00000196
_symmetry_Int_Tables_number   1
_chemical_formula_structural   Te2MoWS2
_chemical_formula_sum   'Te4 Mo2 W2 S4'
_cell_volume   374.72664340
_cell_formula_units_Z   2
loop_
 _symmetry_equiv_pos_site_id
 _symmetry_equiv_pos_as_xyz
  1  'x, y, z'
loop_
 _atom_site_type_symbol
 _atom_site_label
 _atom_site_symmetry_multiplicity
 _atom_site_fract_x
 _atom_site_fract_y
 _atom_site_fract_z
 _atom_site_occupancy
  Te  Te0  1  0.33333300  0.66666700  0.04461900  1
  Te  Te1  1  0.33333300  0.66666700  0.42000800  1
  Te  Te2  1  0.33333300  0.66666700  0.14324000  1
  Te  Te3  1  0.33333300  0.66666700  0.51929400  1
  Mo  Mo4  1  0.00000000  0.00000000  0.09390900  1
  Mo  Mo5  1  0.33333300  0.66666700  0.28178800  1
  W  W6  1  0.00000000  0.00000000  0.46966100  1
  W  W7  1  0.33333300  0.66666700  0.65755700  1
  S  S8  1  0.00000000  0.00000000  0.32126500  1
  S  S9  1  0.00000000  0.00000000  0.69716100  1
  S  S10  1  0.00000000  0.00000000  0.24232000  1
  S  S11  1  0.00000000  0.00000000  0.61792700  1
