# generated using pymatgen
data_Sr4Cu3ClO6
_symmetry_space_group_name_H-M   'P 1'
_cell_length_a   6.67141631
_cell_length_b   6.67141631
_cell_length_c   6.67141631
_cell_angle_alpha   109.47122063
_cell_angle_beta   109.47122063
_cell_angle_gamma   109.47122063
_symmetry_Int_Tables_number   1
_chemical_formula_structural   Sr4Cu3ClO6
_chemical_formula_sum   'Sr4 Cu3 Cl1 O6'
_cell_volume   228.57684582
_cell_formula_units_Z   1
loop_
 _symmetry_equiv_pos_site_id
 _symmetry_equiv_pos_as_xyz
  1  'x, y, z'
loop_
 _atom_site_type_symbol
 _atom_site_label
 _atom_site_symmetry_multiplicity
 _atom_site_fract_x
 _atom_site_fract_y
 _atom_site_fract_z
 _atom_site_occupancy
  Sr  Sr0  1  0.50000000  0.50000000  0.50000000  1
  Sr  Sr1  1  0.00000000  0.50000000  0.00000000  1
  Sr  Sr2  1  0.50000000  0.00000000  0.00000000  1
  Sr  Sr3  1  0.00000000  0.00000000  0.50000000  1
  Cu  Cu4  1  0.50000000  0.50000000  0.00000000  1
  Cu  Cu5  1  0.00000000  0.50000000  0.50000000  1
  Cu  Cu6  1  0.50000000  0.00000000  0.50000000  1
  Cl  Cl7  1  0.00000000  0.00000000  0.00000000  1
  O  O8  1  0.25000000  0.50000000  0.75000000  1
  O  O9  1  0.75000000  0.50000000  0.25000000  1
  O  O10  1  0.50000000  0.75000000  0.25000000  1
  O  O11  1  0.50000000  0.25000000  0.75000000  1
  O  O12  1  0.75000000  0.25000000  0.50000000  1
  O  O13  1  0.25000000  0.75000000  0.50000000  1
