# generated using pymatgen
data_Sr2SmCu3(PbO4)2
_symmetry_space_group_name_H-M   'P 1'
_cell_length_a   3.85388900
_cell_length_b   3.85388900
_cell_length_c   16.08424800
_cell_angle_alpha   90.00000000
_cell_angle_beta   90.00000000
_cell_angle_gamma   90.00000000
_symmetry_Int_Tables_number   1
_chemical_formula_structural   Sr2SmCu3(PbO4)2
_chemical_formula_sum   'Sr2 Sm1 Cu3 Pb2 O8'
_cell_volume   238.89065687
_cell_formula_units_Z   1
loop_
 _symmetry_equiv_pos_site_id
 _symmetry_equiv_pos_as_xyz
  1  'x, y, z'
loop_
 _atom_site_type_symbol
 _atom_site_label
 _atom_site_symmetry_multiplicity
 _atom_site_fract_x
 _atom_site_fract_y
 _atom_site_fract_z
 _atom_site_occupancy
  Sr  Sr0  1  0.00000000  0.00000000  0.77742700  1
  Sr  Sr1  1  0.00000000  0.00000000  0.22257300  1
  Sm  Sm2  1  0.00000000  0.00000000  0.00000000  1
  Cu  Cu3  1  0.00000000  0.00000000  0.50000000  1
  Cu  Cu4  1  0.50000000  0.50000000  0.89294700  1
  Cu  Cu5  1  0.50000000  0.50000000  0.10705300  1
  Pb  Pb6  1  0.50000000  0.50000000  0.38808000  1
  Pb  Pb7  1  0.50000000  0.50000000  0.61192000  1
  O  O8  1  0.00000000  0.50000000  0.90542300  1
  O  O9  1  0.50000000  0.00000000  0.09457700  1
  O  O10  1  0.00000000  0.50000000  0.09457700  1
  O  O11  1  0.50000000  0.00000000  0.90542300  1
  O  O12  1  0.00000000  0.00000000  0.38434500  1
  O  O13  1  0.50000000  0.50000000  0.74769400  1
  O  O14  1  0.50000000  0.50000000  0.25230600  1
  O  O15  1  0.00000000  0.00000000  0.61565500  1
