# generated using pymatgen
data_Na2SO3
_symmetry_space_group_name_H-M   'P 1'
_cell_length_a   5.52276407
_cell_length_b   5.52276407
_cell_length_c   6.19934800
_cell_angle_alpha   90.00000000
_cell_angle_beta   90.00000000
_cell_angle_gamma   120.00000080
_symmetry_Int_Tables_number   1
_chemical_formula_structural   Na2SO3
_chemical_formula_sum   'Na4 S2 O6'
_cell_volume   163.75313581
_cell_formula_units_Z   2
loop_
 _symmetry_equiv_pos_site_id
 _symmetry_equiv_pos_as_xyz
  1  'x, y, z'
loop_
 _atom_site_type_symbol
 _atom_site_label
 _atom_site_symmetry_multiplicity
 _atom_site_fract_x
 _atom_site_fract_y
 _atom_site_fract_z
 _atom_site_occupancy
  Na  Na0  1  0.33333300  0.66666700  0.66587600  1
  Na  Na1  1  0.00000000  0.00000000  0.50000000  1
  Na  Na2  1  0.66666700  0.33333300  0.33412400  1
  Na  Na3  1  0.00000000  0.00000000  0.00000000  1
  S  S4  1  0.33333300  0.66666700  0.16486100  1
  S  S5  1  0.66666700  0.33333300  0.83513900  1
  O  O6  1  0.73844100  0.12077200  0.73479200  1
  O  O7  1  0.38233100  0.26155900  0.73479200  1
  O  O8  1  0.87922800  0.61766900  0.73479200  1
  O  O9  1  0.26155900  0.87922800  0.26520800  1
  O  O10  1  0.12077200  0.38233100  0.26520800  1
  O  O11  1  0.61766900  0.73844100  0.26520800  1
