# generated using pymatgen
data_SrFeAsF
_symmetry_space_group_name_H-M   'P 1'
_cell_length_a   4.15741300
_cell_length_b   4.15741300
_cell_length_c   9.37233200
_cell_angle_alpha   90.00000000
_cell_angle_beta   90.00000000
_cell_angle_gamma   90.00000000
_symmetry_Int_Tables_number   1
_chemical_formula_structural   SrFeAsF
_chemical_formula_sum   'Sr2 Fe2 As2 F2'
_cell_volume   161.99216281
_cell_formula_units_Z   2
loop_
 _symmetry_equiv_pos_site_id
 _symmetry_equiv_pos_as_xyz
  1  'x, y, z'
loop_
 _atom_site_type_symbol
 _atom_site_label
 _atom_site_symmetry_multiplicity
 _atom_site_fract_x
 _atom_site_fract_y
 _atom_site_fract_z
 _atom_site_occupancy
  Sr  Sr0  1  0.50000000  0.00000000  0.14935600  1
  Sr  Sr1  1  0.00000000  0.50000000  0.85064400  1
  Fe  Fe2  1  0.50000000  0.50000000  0.50000000  1
  Fe  Fe3  1  0.00000000  0.00000000  0.50000000  1
  As  As4  1  0.50000000  0.00000000  0.67276200  1
  As  As5  1  0.00000000  0.50000000  0.32723800  1
  F  F6  1  0.50000000  0.50000000  0.00000000  1
  F  F7  1  0.00000000  0.00000000  0.00000000  1
