# generated using pymatgen
data_LiV2OF5
_symmetry_space_group_name_H-M   'P 1'
_cell_length_a   5.24771700
_cell_length_b   5.51938642
_cell_length_c   17.28994429
_cell_angle_alpha   84.51449362
_cell_angle_beta   82.37694347
_cell_angle_gamma   61.91889271
_symmetry_Int_Tables_number   1
_chemical_formula_structural   LiV2OF5
_chemical_formula_sum   'Li4 V8 O4 F20'
_cell_volume   437.61757514
_cell_formula_units_Z   4
loop_
 _symmetry_equiv_pos_site_id
 _symmetry_equiv_pos_as_xyz
  1  'x, y, z'
loop_
 _atom_site_type_symbol
 _atom_site_label
 _atom_site_symmetry_multiplicity
 _atom_site_fract_x
 _atom_site_fract_y
 _atom_site_fract_z
 _atom_site_occupancy
  Li  Li0  1  0.50533500  0.66213600  0.31553900  1
  Li  Li1  1  0.62688200  0.78557700  0.92365300  1
  Li  Li2  1  0.28424300  0.39785600  0.06090600  1
  Li  Li3  1  0.35367500  0.56765900  0.66967800  1
  V  V4  1  0.65872300  0.60150500  0.12876400  1
  V  V5  1  0.76121900  0.73641200  0.74573300  1
  V  V6  1  0.23662100  0.25515600  0.24536800  1
  V  V7  1  0.10502900  0.15996200  0.62759600  1
  V  V8  1  0.88666100  0.86757300  0.38001400  1
  V  V9  1  0.47255600  0.51912100  0.49426700  1
  V  V10  1  0.02484300  0.97408100  0.99750400  1
  V  V11  1  0.37402700  0.39194900  0.87637900  1
  O  O12  1  0.03439900  0.40651400  0.15593900  1
  O  O13  1  0.04346600  0.44792100  0.68880400  1
  O  O14  1  0.26067200  0.66639100  0.40888000  1
  O  O15  1  0.30552500  0.68394000  0.93779500  1
  F  F16  1  0.24458500  0.79240700  0.08975300  1
  F  F17  1  0.20035500  0.81274800  0.57271800  1
  F  F18  1  0.69672300  0.29270400  0.06263400  1
  F  F19  1  0.55018400  0.94270500  0.17904200  1
  F  F20  1  0.50837500  0.53177500  0.77634200  1
  F  F21  1  0.69326900  0.35999700  0.59440600  1
  F  F22  1  0.06844900  0.00646800  0.28231100  1
  F  F23  1  0.79471600  0.75543000  0.02371700  1
  F  F24  1  0.50733100  0.92385300  0.66380100  1
  F  F25  1  0.69500500  0.73029200  0.46718200  1
  F  F26  1  0.92205000  0.55597600  0.31296100  1
  F  F27  1  0.95866300  0.58298000  0.84869000  1
  F  F28  1  0.27403600  0.28923600  0.53486000  1
  F  F29  1  0.49673500  0.06015400  0.33103800  1
  F  F30  1  0.25205400  0.20051900  0.97439700  1
  F  F31  1  0.98500000  0.95290200  0.71586400  1
  F  F32  1  0.47223000  0.47080100  0.22576800  1
  F  F33  1  0.47414700  0.03946100  0.82526800  1
  F  F34  1  0.78624400  0.20485900  0.43219200  1
  F  F35  1  0.77684100  0.16231000  0.91045000  1
