# generated using pymatgen
data_Ag(Mo3S4)2
_symmetry_space_group_name_H-M   R-3
_cell_length_a   6.53651744
_cell_length_b   6.53651744
_cell_length_c   6.53651711
_cell_angle_alpha   92.07234075
_cell_angle_beta   92.07234075
_cell_angle_gamma   92.07234869
_symmetry_Int_Tables_number   148
_chemical_formula_structural   Ag(Mo3S4)2
_chemical_formula_sum   'Ag1 Mo6 S8'
_cell_volume   278.71805664
_cell_formula_units_Z   1
loop_
 _symmetry_equiv_pos_site_id
 _symmetry_equiv_pos_as_xyz
  1  'x, y, z'
  2  '-x, -y, -z'
  3  'z, x, y'
  4  '-z, -x, -y'
  5  'y, z, x'
  6  '-y, -z, -x'
loop_
 _atom_site_type_symbol
 _atom_site_label
 _atom_site_symmetry_multiplicity
 _atom_site_fract_x
 _atom_site_fract_y
 _atom_site_fract_z
 _atom_site_occupancy
  Ag  Ag0  1  0.00000000  0.00000000  0.00000000  1.0
  Mo  Mo1  6  0.21567300  0.40739800  0.55329200  1.0
  S  S2  6  0.13299600  0.72922200  0.38333000  1.0
  S  S3  2  0.22376800  0.22376800  0.22376800  1.0
