# generated using pymatgen
data_MgAlSi
_symmetry_space_group_name_H-M   Pnma
_cell_length_a   3.97334600
_cell_length_b   6.66838500
_cell_length_c   8.12039800
_cell_angle_alpha   90.00000000
_cell_angle_beta   90.00000000
_cell_angle_gamma   90.00000000
_symmetry_Int_Tables_number   62
_chemical_formula_structural   MgAlSi
_chemical_formula_sum   'Mg4 Al4 Si4'
_cell_volume   215.15644836
_cell_formula_units_Z   4
loop_
 _symmetry_equiv_pos_site_id
 _symmetry_equiv_pos_as_xyz
  1  'x, y, z'
  2  '-x, -y, -z'
  3  '-x, -y+1/2, z+1/2'
  4  'x, y+1/2, -z+1/2'
  5  '-x+1/2, y+1/2, -z+1/2'
  6  'x+1/2, -y+1/2, z+1/2'
  7  'x+1/2, -y, -z'
  8  '-x+1/2, y, z'
loop_
 _atom_site_type_symbol
 _atom_site_label
 _atom_site_symmetry_multiplicity
 _atom_site_fract_x
 _atom_site_fract_y
 _atom_site_fract_z
 _atom_site_occupancy
  Mg  Mg0  4  0.25000000  0.03616800  0.32837900  1.0
  Al  Al1  4  0.25000000  0.14081600  0.92966200  1.0
  Si  Si2  4  0.25000000  0.26090200  0.62137500  1.0
