# generated using pymatgen
data_NaC2
_symmetry_space_group_name_H-M   Immm
_cell_length_a   4.12155500
_cell_length_b   4.12354684
_cell_length_c   4.12354684
_cell_angle_alpha   72.62434336
_cell_angle_beta   60.01596951
_cell_angle_gamma   60.01596951
_symmetry_Int_Tables_number   71
_chemical_formula_structural   NaC2
_chemical_formula_sum   'Na1 C2'
_cell_volume   52.46629125
_cell_formula_units_Z   1
loop_
 _symmetry_equiv_pos_site_id
 _symmetry_equiv_pos_as_xyz
  1  'x, y, z'
  2  '-x, -y, -z'
  3  '-x-y-z, z, y'
  4  'x+y+z, -z, -y'
  5  'x+y+z, -y, -z'
  6  '-x-y-z, y, z'
  7  '-x, -z, -y'
  8  'x, z, y'
loop_
 _atom_site_type_symbol
 _atom_site_label
 _atom_site_symmetry_multiplicity
 _atom_site_fract_x
 _atom_site_fract_y
 _atom_site_fract_z
 _atom_site_occupancy
  Na  Na0  1  0.00000000  0.00000000  0.00000000  1.0
  C  C1  2  0.50000000  0.37057400  0.62942600  1.0
