# generated using pymatgen
data_CoO2
_symmetry_space_group_name_H-M   C2/m
_cell_length_a   2.85159005
_cell_length_b   2.85159005
_cell_length_c   10.66121751
_cell_angle_alpha   86.66184278
_cell_angle_beta   86.66184278
_cell_angle_gamma   65.15395579
_symmetry_Int_Tables_number   12
_chemical_formula_structural   CoO2
_chemical_formula_sum   'Co1 O2'
_cell_volume   78.48011260
_cell_formula_units_Z   1
loop_
 _symmetry_equiv_pos_site_id
 _symmetry_equiv_pos_as_xyz
  1  'x, y, z'
  2  '-x, -y, -z'
  3  '-y, -x, -z'
  4  'y, x, z'
loop_
 _atom_site_type_symbol
 _atom_site_label
 _atom_site_symmetry_multiplicity
 _atom_site_fract_x
 _atom_site_fract_y
 _atom_site_fract_z
 _atom_site_occupancy
  Co  Co0  1  0.50000000  0.50000000  0.50000000  1.0
  O  O1  2  0.20508300  0.20508300  0.40726300  1.0
