# generated using pymatgen
data_FeGe2
_symmetry_space_group_name_H-M   Cmce
_cell_length_a   6.64424955
_cell_length_b   6.64424955
_cell_length_c   8.24499700
_cell_angle_alpha   90.00000000
_cell_angle_beta   90.00000000
_cell_angle_gamma   104.86121548
_symmetry_Int_Tables_number   64
_chemical_formula_structural   FeGe2
_chemical_formula_sum   'Fe8 Ge16'
_cell_volume   351.80876923
_cell_formula_units_Z   8
loop_
 _symmetry_equiv_pos_site_id
 _symmetry_equiv_pos_as_xyz
  1  'x, y, z'
  2  '-x, -y, -z'
  3  '-x+1/2, -y+1/2, z+1/2'
  4  'x+1/2, y+1/2, -z+1/2'
  5  '-y, -x, -z'
  6  'y, x, z'
  7  'y+1/2, x+1/2, -z+1/2'
  8  '-y+1/2, -x+1/2, z+1/2'
loop_
 _atom_site_type_symbol
 _atom_site_label
 _atom_site_symmetry_multiplicity
 _atom_site_fract_x
 _atom_site_fract_y
 _atom_site_fract_z
 _atom_site_occupancy
  Fe  Fe0  4  0.19663500  0.19663500  0.18760100  1.0
  Fe  Fe1  4  0.21834700  0.78165300  0.00000000  1.0
  Ge  Ge2  8  0.08649800  0.83410800  0.26880800  1.0
  Ge  Ge3  8  0.10075100  0.35507900  0.45586600  1.0
