# generated using pymatgen
data_Fe2Te1.3Se0.7
_symmetry_space_group_name_H-M   P4mm
_cell_length_a   3.75539800
_cell_length_b   3.75539800
_cell_length_c   5.93771700
_cell_angle_alpha   90.00000000
_cell_angle_beta   90.00000000
_cell_angle_gamma   90.00000000
_symmetry_Int_Tables_number   99
_chemical_formula_structural   Fe2Te1.3Se0.7
_chemical_formula_sum   'Fe2 Te1.3 Se0.7'
_cell_volume   83.73970680
_cell_formula_units_Z   1
loop_
 _symmetry_equiv_pos_site_id
 _symmetry_equiv_pos_as_xyz
  1  'x, y, z'
  2  '-y, x, z'
  3  '-x, -y, z'
  4  'y, -x, z'
  5  '-x, y, z'
  6  'y, x, z'
  7  'x, -y, z'
  8  '-y, -x, z'
loop_
 _atom_site_type_symbol
 _atom_site_label
 _atom_site_symmetry_multiplicity
 _atom_site_fract_x
 _atom_site_fract_y
 _atom_site_fract_z
 _atom_site_occupancy
  Fe  Fe0  2  0.00000000  0.50000000  0.01228300  1.0
  Te  Te1  1  0.50000000  0.50000000  0.73851800  1.0
  Se  Se2  1  0.00000000  0.00000000  0.23691600  0.7
  Te  Te3  1  0.00000000  0.00000000  0.23691600  0.3
