# generated using pymatgen
data_HoSiRh
_symmetry_space_group_name_H-M   Pnma
_cell_length_a   4.24095600
_cell_length_b   6.88396700
_cell_length_c   7.40043800
_cell_angle_alpha   90.00000000
_cell_angle_beta   90.00000000
_cell_angle_gamma   90.00000000
_symmetry_Int_Tables_number   62
_chemical_formula_structural   HoSiRh
_chemical_formula_sum   'Ho4 Si4 Rh4'
_cell_volume   216.05283576
_cell_formula_units_Z   4
loop_
 _symmetry_equiv_pos_site_id
 _symmetry_equiv_pos_as_xyz
  1  'x, y, z'
  2  '-x, -y, -z'
  3  '-x, -y+1/2, z+1/2'
  4  'x, y+1/2, -z+1/2'
  5  '-x+1/2, y+1/2, -z+1/2'
  6  'x+1/2, -y+1/2, z+1/2'
  7  'x+1/2, -y, -z'
  8  '-x+1/2, y, z'
loop_
 _atom_site_type_symbol
 _atom_site_label
 _atom_site_symmetry_multiplicity
 _atom_site_fract_x
 _atom_site_fract_y
 _atom_site_fract_z
 _atom_site_occupancy
  Ho  Ho0  4  0.25000000  0.49959100  0.68985400  1.0
  Si  Si1  4  0.25000000  0.29530800  0.10434700  1.0
  Rh  Rh2  4  0.25000000  0.15422700  0.43020700  1.0
