# generated using pymatgen
data_Nb1.8Rh2.2
_symmetry_space_group_name_H-M   Pmma
_cell_length_a   2.84001700
_cell_length_b   4.60096000
_cell_length_c   4.93912300
_cell_angle_alpha   90.00000000
_cell_angle_beta   90.00000000
_cell_angle_gamma   90.00000000
_symmetry_Int_Tables_number   51
_chemical_formula_structural   Nb1.8Rh2.2
_chemical_formula_sum   'Nb1.8 Rh2.2'
_cell_volume   64.53855522
_cell_formula_units_Z   1
loop_
 _symmetry_equiv_pos_site_id
 _symmetry_equiv_pos_as_xyz
  1  'x, y, z'
  2  '-x, -y, -z'
  3  '-x, -y+1/2, z'
  4  'x, y+1/2, -z'
  5  '-x, y+1/2, -z'
  6  'x, -y+1/2, z'
  7  'x, -y, -z'
  8  '-x, y, z'
loop_
 _atom_site_type_symbol
 _atom_site_label
 _atom_site_symmetry_multiplicity
 _atom_site_fract_x
 _atom_site_fract_y
 _atom_site_fract_z
 _atom_site_occupancy
  Nb  Nb0  2  0.00000000  0.25000000  0.80493600  0.9
  Rh  Rh1  2  0.00000000  0.25000000  0.80493600  0.1
  Rh  Rh2  2  0.50000000  0.25000000  0.31319000  1.0
