# generated using pymatgen
data_PbS
_symmetry_space_group_name_H-M   Pma2
_cell_length_a   6.14587200
_cell_length_b   6.27737200
_cell_length_c   7.00386700
_cell_angle_alpha   90.00000000
_cell_angle_beta   90.00000000
_cell_angle_gamma   90.00000000
_symmetry_Int_Tables_number   28
_chemical_formula_structural   PbS
_chemical_formula_sum   'Pb4 S4'
_cell_volume   270.20866223
_cell_formula_units_Z   4
loop_
 _symmetry_equiv_pos_site_id
 _symmetry_equiv_pos_as_xyz
  1  'x, y, z'
  2  '-x, y, -z'
  3  'x, y, -z+1/2'
  4  '-x, y, z+1/2'
loop_
 _atom_site_type_symbol
 _atom_site_label
 _atom_site_symmetry_multiplicity
 _atom_site_fract_x
 _atom_site_fract_y
 _atom_site_fract_z
 _atom_site_occupancy
  Pb  Pb0  2  0.16440000  0.54653400  0.75000000  1.0
  Pb  Pb1  2  0.30537200  0.00089900  0.25000000  1.0
  S  S2  2  0.00000000  0.86038300  0.00000000  1.0
  S  S3  2  0.24686800  0.41208300  0.25000000  1.0
