# generated using pymatgen
data_S
_symmetry_space_group_name_H-M   P4mm
_cell_length_a   16.92971100
_cell_length_b   16.92971100
_cell_length_c   20.44841800
_cell_angle_alpha   90.00000000
_cell_angle_beta   90.00000000
_cell_angle_gamma   90.00000000
_symmetry_Int_Tables_number   99
_chemical_formula_structural   S
_chemical_formula_sum   S8
_cell_volume   5860.82566730
_cell_formula_units_Z   8
loop_
 _symmetry_equiv_pos_site_id
 _symmetry_equiv_pos_as_xyz
  1  'x, y, z'
  2  '-y, x, z'
  3  '-x, -y, z'
  4  'y, -x, z'
  5  '-x, y, z'
  6  'y, x, z'
  7  'x, -y, z'
  8  '-y, -x, z'
loop_
 _atom_site_type_symbol
 _atom_site_label
 _atom_site_symmetry_multiplicity
 _atom_site_fract_x
 _atom_site_fract_y
 _atom_site_fract_z
 _atom_site_occupancy
  S  S0  4  0.35948800  0.50000000  0.41625300  1.0
  S  S1  4  0.40078500  0.40078500  0.46374700  1.0
